<?xml version="1.0" encoding="UTF-8"?>
<additional>
  <inductionLoop id="0" lane="1000_0" pos="0.0" freq="0.1" file="NUL" />
  <inductionLoop id="1" lane="1000_1" pos="0.0" freq="0.1" file="NUL" />
  <inductionLoop id="2" lane="1000_0" pos="5.0" freq="0.1" file="NUL" />
  <inductionLoop id="3" lane="1000_1" pos="5.0" freq="0.1" file="NUL" />
  <inductionLoop id="4" lane="1000_0" pos="10.0" freq="0.1" file="NUL" />
  <inductionLoop id="5" lane="1000_1" pos="10.0" freq="0.1" file="NUL" />
  <inductionLoop id="6" lane="1000_0" pos="15.0" freq="0.1" file="NUL" />
  <inductionLoop id="7" lane="1000_1" pos="15.0" freq="0.1" file="NUL" />
  <inductionLoop id="8" lane="1000_0" pos="20.0" freq="0.1" file="NUL" />
  <inductionLoop id="9" lane="1000_1" pos="20.0" freq="0.1" file="NUL" />
  <inductionLoop id="10" lane="1000_0" pos="25.0" freq="0.1" file="NUL" />
  <inductionLoop id="11" lane="1000_1" pos="25.0" freq="0.1" file="NUL" />
  <inductionLoop id="12" lane="1000_0" pos="30.0" freq="0.1" file="NUL" />
  <inductionLoop id="13" lane="1000_1" pos="30.0" freq="0.1" file="NUL" />
  <inductionLoop id="14" lane="1000_0" pos="35.0" freq="0.1" file="NUL" />
  <inductionLoop id="15" lane="1000_1" pos="35.0" freq="0.1" file="NUL" />
  <inductionLoop id="16" lane="1000_0" pos="40.0" freq="0.1" file="NUL" />
  <inductionLoop id="17" lane="1000_1" pos="40.0" freq="0.1" file="NUL" />
  <inductionLoop id="18" lane="1000_0" pos="45.0" freq="0.1" file="NUL" />
  <inductionLoop id="19" lane="1000_1" pos="45.0" freq="0.1" file="NUL" />
  <inductionLoop id="20" lane="1001_0" pos="0.0" freq="0.1" file="NUL" />
  <inductionLoop id="21" lane="1001_1" pos="0.0" freq="0.1" file="NUL" />
  <inductionLoop id="22" lane="1001_0" pos="5.0" freq="0.1" file="NUL" />
  <inductionLoop id="23" lane="1001_1" pos="5.0" freq="0.1" file="NUL" />
  <inductionLoop id="24" lane="1001_0" pos="10.0" freq="0.1" file="NUL" />
  <inductionLoop id="25" lane="1001_1" pos="10.0" freq="0.1" file="NUL" />
  <inductionLoop id="26" lane="1001_0" pos="15.0" freq="0.1" file="NUL" />
  <inductionLoop id="27" lane="1001_1" pos="15.0" freq="0.1" file="NUL" />
  <inductionLoop id="28" lane="1001_0" pos="20.0" freq="0.1" file="NUL" />
  <inductionLoop id="29" lane="1001_1" pos="20.0" freq="0.1" file="NUL" />
  <inductionLoop id="30" lane="1001_0" pos="25.0" freq="0.1" file="NUL" />
  <inductionLoop id="31" lane="1001_1" pos="25.0" freq="0.1" file="NUL" />
  <inductionLoop id="32" lane="1001_0" pos="30.0" freq="0.1" file="NUL" />
  <inductionLoop id="33" lane="1001_1" pos="30.0" freq="0.1" file="NUL" />
  <inductionLoop id="34" lane="1001_0" pos="35.0" freq="0.1" file="NUL" />
  <inductionLoop id="35" lane="1001_1" pos="35.0" freq="0.1" file="NUL" />
  <inductionLoop id="36" lane="1001_0" pos="40.0" freq="0.1" file="NUL" />
  <inductionLoop id="37" lane="1001_1" pos="40.0" freq="0.1" file="NUL" />
  <inductionLoop id="38" lane="1001_0" pos="45.0" freq="0.1" file="NUL" />
  <inductionLoop id="39" lane="1001_1" pos="45.0" freq="0.1" file="NUL" />
  <inductionLoop id="40" lane="1002_0" pos="0.0" freq="0.1" file="NUL" />
  <inductionLoop id="41" lane="1002_1" pos="0.0" freq="0.1" file="NUL" />
  <inductionLoop id="42" lane="1002_0" pos="5.0" freq="0.1" file="NUL" />
  <inductionLoop id="43" lane="1002_1" pos="5.0" freq="0.1" file="NUL" />
  <inductionLoop id="44" lane="1002_0" pos="10.0" freq="0.1" file="NUL" />
  <inductionLoop id="45" lane="1002_1" pos="10.0" freq="0.1" file="NUL" />
  <inductionLoop id="46" lane="1002_0" pos="15.0" freq="0.1" file="NUL" />
  <inductionLoop id="47" lane="1002_1" pos="15.0" freq="0.1" file="NUL" />
  <inductionLoop id="48" lane="1002_0" pos="20.0" freq="0.1" file="NUL" />
  <inductionLoop id="49" lane="1002_1" pos="20.0" freq="0.1" file="NUL" />
  <inductionLoop id="50" lane="1002_0" pos="25.0" freq="0.1" file="NUL" />
  <inductionLoop id="51" lane="1002_1" pos="25.0" freq="0.1" file="NUL" />
  <inductionLoop id="52" lane="1002_0" pos="30.0" freq="0.1" file="NUL" />
  <inductionLoop id="53" lane="1002_1" pos="30.0" freq="0.1" file="NUL" />
  <inductionLoop id="54" lane="1002_0" pos="35.0" freq="0.1" file="NUL" />
  <inductionLoop id="55" lane="1002_1" pos="35.0" freq="0.1" file="NUL" />
  <inductionLoop id="56" lane="1002_0" pos="40.0" freq="0.1" file="NUL" />
  <inductionLoop id="57" lane="1002_1" pos="40.0" freq="0.1" file="NUL" />
  <inductionLoop id="58" lane="1002_0" pos="45.0" freq="0.1" file="NUL" />
  <inductionLoop id="59" lane="1002_1" pos="45.0" freq="0.1" file="NUL" />
  <inductionLoop id="60" lane="1003_0" pos="0.0" freq="0.1" file="NUL" />
  <inductionLoop id="61" lane="1003_1" pos="0.0" freq="0.1" file="NUL" />
  <inductionLoop id="62" lane="1003_0" pos="5.0" freq="0.1" file="NUL" />
  <inductionLoop id="63" lane="1003_1" pos="5.0" freq="0.1" file="NUL" />
  <inductionLoop id="64" lane="1003_0" pos="10.0" freq="0.1" file="NUL" />
  <inductionLoop id="65" lane="1003_1" pos="10.0" freq="0.1" file="NUL" />
  <inductionLoop id="66" lane="1003_0" pos="15.0" freq="0.1" file="NUL" />
  <inductionLoop id="67" lane="1003_1" pos="15.0" freq="0.1" file="NUL" />
  <inductionLoop id="68" lane="1003_0" pos="20.0" freq="0.1" file="NUL" />
  <inductionLoop id="69" lane="1003_1" pos="20.0" freq="0.1" file="NUL" />
  <inductionLoop id="70" lane="1003_0" pos="25.0" freq="0.1" file="NUL" />
  <inductionLoop id="71" lane="1003_1" pos="25.0" freq="0.1" file="NUL" />
  <inductionLoop id="72" lane="1003_0" pos="30.0" freq="0.1" file="NUL" />
  <inductionLoop id="73" lane="1003_1" pos="30.0" freq="0.1" file="NUL" />
  <inductionLoop id="74" lane="1003_0" pos="35.0" freq="0.1" file="NUL" />
  <inductionLoop id="75" lane="1003_1" pos="35.0" freq="0.1" file="NUL" />
  <inductionLoop id="76" lane="1003_0" pos="40.0" freq="0.1" file="NUL" />
  <inductionLoop id="77" lane="1003_1" pos="40.0" freq="0.1" file="NUL" />
  <inductionLoop id="78" lane="1003_0" pos="45.0" freq="0.1" file="NUL" />
  <inductionLoop id="79" lane="1003_1" pos="45.0" freq="0.1" file="NUL" />
  <inductionLoop id="80" lane="1004_0" pos="0.0" freq="0.1" file="NUL" />
  <inductionLoop id="81" lane="1004_1" pos="0.0" freq="0.1" file="NUL" />
  <inductionLoop id="82" lane="1004_0" pos="5.0" freq="0.1" file="NUL" />
  <inductionLoop id="83" lane="1004_1" pos="5.0" freq="0.1" file="NUL" />
  <inductionLoop id="84" lane="1004_0" pos="10.0" freq="0.1" file="NUL" />
  <inductionLoop id="85" lane="1004_1" pos="10.0" freq="0.1" file="NUL" />
  <inductionLoop id="86" lane="1004_0" pos="15.0" freq="0.1" file="NUL" />
  <inductionLoop id="87" lane="1004_1" pos="15.0" freq="0.1" file="NUL" />
  <inductionLoop id="88" lane="1004_0" pos="20.0" freq="0.1" file="NUL" />
  <inductionLoop id="89" lane="1004_1" pos="20.0" freq="0.1" file="NUL" />
  <inductionLoop id="90" lane="1004_0" pos="25.0" freq="0.1" file="NUL" />
  <inductionLoop id="91" lane="1004_1" pos="25.0" freq="0.1" file="NUL" />
  <inductionLoop id="92" lane="1004_0" pos="30.0" freq="0.1" file="NUL" />
  <inductionLoop id="93" lane="1004_1" pos="30.0" freq="0.1" file="NUL" />
  <inductionLoop id="94" lane="1004_0" pos="35.0" freq="0.1" file="NUL" />
  <inductionLoop id="95" lane="1004_1" pos="35.0" freq="0.1" file="NUL" />
  <inductionLoop id="96" lane="1004_0" pos="40.0" freq="0.1" file="NUL" />
  <inductionLoop id="97" lane="1004_1" pos="40.0" freq="0.1" file="NUL" />
  <inductionLoop id="98" lane="1004_0" pos="45.0" freq="0.1" file="NUL" />
  <inductionLoop id="99" lane="1004_1" pos="45.0" freq="0.1" file="NUL" />
  <inductionLoop id="100" lane="1005_0" pos="0.0" freq="0.1" file="NUL" />
  <inductionLoop id="101" lane="1005_1" pos="0.0" freq="0.1" file="NUL" />
  <inductionLoop id="102" lane="1005_0" pos="5.0" freq="0.1" file="NUL" />
  <inductionLoop id="103" lane="1005_1" pos="5.0" freq="0.1" file="NUL" />
  <inductionLoop id="104" lane="1005_0" pos="10.0" freq="0.1" file="NUL" />
  <inductionLoop id="105" lane="1005_1" pos="10.0" freq="0.1" file="NUL" />
  <inductionLoop id="106" lane="1005_0" pos="15.0" freq="0.1" file="NUL" />
  <inductionLoop id="107" lane="1005_1" pos="15.0" freq="0.1" file="NUL" />
  <inductionLoop id="108" lane="1005_0" pos="20.0" freq="0.1" file="NUL" />
  <inductionLoop id="109" lane="1005_1" pos="20.0" freq="0.1" file="NUL" />
  <inductionLoop id="110" lane="1005_0" pos="25.0" freq="0.1" file="NUL" />
  <inductionLoop id="111" lane="1005_1" pos="25.0" freq="0.1" file="NUL" />
  <inductionLoop id="112" lane="1005_0" pos="30.0" freq="0.1" file="NUL" />
  <inductionLoop id="113" lane="1005_1" pos="30.0" freq="0.1" file="NUL" />
  <inductionLoop id="114" lane="1005_0" pos="35.0" freq="0.1" file="NUL" />
  <inductionLoop id="115" lane="1005_1" pos="35.0" freq="0.1" file="NUL" />
  <inductionLoop id="116" lane="1005_0" pos="40.0" freq="0.1" file="NUL" />
  <inductionLoop id="117" lane="1005_1" pos="40.0" freq="0.1" file="NUL" />
  <inductionLoop id="118" lane="1005_0" pos="45.0" freq="0.1" file="NUL" />
  <inductionLoop id="119" lane="1005_1" pos="45.0" freq="0.1" file="NUL" />
  <inductionLoop id="120" lane="1006_0" pos="0.0" freq="0.1" file="NUL" />
  <inductionLoop id="121" lane="1006_1" pos="0.0" freq="0.1" file="NUL" />
  <inductionLoop id="122" lane="1006_0" pos="5.0" freq="0.1" file="NUL" />
  <inductionLoop id="123" lane="1006_1" pos="5.0" freq="0.1" file="NUL" />
  <inductionLoop id="124" lane="1006_0" pos="10.0" freq="0.1" file="NUL" />
  <inductionLoop id="125" lane="1006_1" pos="10.0" freq="0.1" file="NUL" />
  <inductionLoop id="126" lane="1006_0" pos="15.0" freq="0.1" file="NUL" />
  <inductionLoop id="127" lane="1006_1" pos="15.0" freq="0.1" file="NUL" />
  <inductionLoop id="128" lane="1006_0" pos="20.0" freq="0.1" file="NUL" />
  <inductionLoop id="129" lane="1006_1" pos="20.0" freq="0.1" file="NUL" />
  <inductionLoop id="130" lane="1006_0" pos="25.0" freq="0.1" file="NUL" />
  <inductionLoop id="131" lane="1006_1" pos="25.0" freq="0.1" file="NUL" />
  <inductionLoop id="132" lane="1006_0" pos="30.0" freq="0.1" file="NUL" />
  <inductionLoop id="133" lane="1006_1" pos="30.0" freq="0.1" file="NUL" />
  <inductionLoop id="134" lane="1006_0" pos="35.0" freq="0.1" file="NUL" />
  <inductionLoop id="135" lane="1006_1" pos="35.0" freq="0.1" file="NUL" />
  <inductionLoop id="136" lane="1006_0" pos="40.0" freq="0.1" file="NUL" />
  <inductionLoop id="137" lane="1006_1" pos="40.0" freq="0.1" file="NUL" />
  <inductionLoop id="138" lane="1006_0" pos="45.0" freq="0.1" file="NUL" />
  <inductionLoop id="139" lane="1006_1" pos="45.0" freq="0.1" file="NUL" />
  <inductionLoop id="140" lane="1007_0" pos="0.0" freq="0.1" file="NUL" />
  <inductionLoop id="141" lane="1007_1" pos="0.0" freq="0.1" file="NUL" />
  <inductionLoop id="142" lane="1007_0" pos="5.0" freq="0.1" file="NUL" />
  <inductionLoop id="143" lane="1007_1" pos="5.0" freq="0.1" file="NUL" />
  <inductionLoop id="144" lane="1007_0" pos="10.0" freq="0.1" file="NUL" />
  <inductionLoop id="145" lane="1007_1" pos="10.0" freq="0.1" file="NUL" />
  <inductionLoop id="146" lane="1007_0" pos="15.0" freq="0.1" file="NUL" />
  <inductionLoop id="147" lane="1007_1" pos="15.0" freq="0.1" file="NUL" />
  <inductionLoop id="148" lane="1007_0" pos="20.0" freq="0.1" file="NUL" />
  <inductionLoop id="149" lane="1007_1" pos="20.0" freq="0.1" file="NUL" />
  <inductionLoop id="150" lane="1007_0" pos="25.0" freq="0.1" file="NUL" />
  <inductionLoop id="151" lane="1007_1" pos="25.0" freq="0.1" file="NUL" />
  <inductionLoop id="152" lane="1007_0" pos="30.0" freq="0.1" file="NUL" />
  <inductionLoop id="153" lane="1007_1" pos="30.0" freq="0.1" file="NUL" />
  <inductionLoop id="154" lane="1007_0" pos="35.0" freq="0.1" file="NUL" />
  <inductionLoop id="155" lane="1007_1" pos="35.0" freq="0.1" file="NUL" />
  <inductionLoop id="156" lane="1007_0" pos="40.0" freq="0.1" file="NUL" />
  <inductionLoop id="157" lane="1007_1" pos="40.0" freq="0.1" file="NUL" />
  <inductionLoop id="158" lane="1007_0" pos="45.0" freq="0.1" file="NUL" />
  <inductionLoop id="159" lane="1007_1" pos="45.0" freq="0.1" file="NUL" />
  <inductionLoop id="160" lane="1008_0" pos="0.0" freq="0.1" file="NUL" />
  <inductionLoop id="161" lane="1008_1" pos="0.0" freq="0.1" file="NUL" />
  <inductionLoop id="162" lane="1008_0" pos="5.0" freq="0.1" file="NUL" />
  <inductionLoop id="163" lane="1008_1" pos="5.0" freq="0.1" file="NUL" />
  <inductionLoop id="164" lane="1008_0" pos="10.0" freq="0.1" file="NUL" />
  <inductionLoop id="165" lane="1008_1" pos="10.0" freq="0.1" file="NUL" />
  <inductionLoop id="166" lane="1008_0" pos="15.0" freq="0.1" file="NUL" />
  <inductionLoop id="167" lane="1008_1" pos="15.0" freq="0.1" file="NUL" />
  <inductionLoop id="168" lane="1008_0" pos="20.0" freq="0.1" file="NUL" />
  <inductionLoop id="169" lane="1008_1" pos="20.0" freq="0.1" file="NUL" />
  <inductionLoop id="170" lane="1008_0" pos="25.0" freq="0.1" file="NUL" />
  <inductionLoop id="171" lane="1008_1" pos="25.0" freq="0.1" file="NUL" />
  <inductionLoop id="172" lane="1008_0" pos="30.0" freq="0.1" file="NUL" />
  <inductionLoop id="173" lane="1008_1" pos="30.0" freq="0.1" file="NUL" />
  <inductionLoop id="174" lane="1008_0" pos="35.0" freq="0.1" file="NUL" />
  <inductionLoop id="175" lane="1008_1" pos="35.0" freq="0.1" file="NUL" />
  <inductionLoop id="176" lane="1008_0" pos="40.0" freq="0.1" file="NUL" />
  <inductionLoop id="177" lane="1008_1" pos="40.0" freq="0.1" file="NUL" />
  <inductionLoop id="178" lane="1008_0" pos="45.0" freq="0.1" file="NUL" />
  <inductionLoop id="179" lane="1008_1" pos="45.0" freq="0.1" file="NUL" />
  <inductionLoop id="180" lane="1009_0" pos="0.0" freq="0.1" file="NUL" />
  <inductionLoop id="181" lane="1009_1" pos="0.0" freq="0.1" file="NUL" />
  <inductionLoop id="182" lane="1009_0" pos="5.0" freq="0.1" file="NUL" />
  <inductionLoop id="183" lane="1009_1" pos="5.0" freq="0.1" file="NUL" />
  <inductionLoop id="184" lane="1009_0" pos="10.0" freq="0.1" file="NUL" />
  <inductionLoop id="185" lane="1009_1" pos="10.0" freq="0.1" file="NUL" />
  <inductionLoop id="186" lane="1009_0" pos="15.0" freq="0.1" file="NUL" />
  <inductionLoop id="187" lane="1009_1" pos="15.0" freq="0.1" file="NUL" />
  <inductionLoop id="188" lane="1009_0" pos="20.0" freq="0.1" file="NUL" />
  <inductionLoop id="189" lane="1009_1" pos="20.0" freq="0.1" file="NUL" />
  <inductionLoop id="190" lane="1009_0" pos="25.0" freq="0.1" file="NUL" />
  <inductionLoop id="191" lane="1009_1" pos="25.0" freq="0.1" file="NUL" />
  <inductionLoop id="192" lane="1009_0" pos="30.0" freq="0.1" file="NUL" />
  <inductionLoop id="193" lane="1009_1" pos="30.0" freq="0.1" file="NUL" />
  <inductionLoop id="194" lane="1009_0" pos="35.0" freq="0.1" file="NUL" />
  <inductionLoop id="195" lane="1009_1" pos="35.0" freq="0.1" file="NUL" />
  <inductionLoop id="196" lane="1009_0" pos="40.0" freq="0.1" file="NUL" />
  <inductionLoop id="197" lane="1009_1" pos="40.0" freq="0.1" file="NUL" />
  <inductionLoop id="198" lane="1009_0" pos="45.0" freq="0.1" file="NUL" />
  <inductionLoop id="199" lane="1009_1" pos="45.0" freq="0.1" file="NUL" />
  <inductionLoop id="200" lane="1010_0" pos="0.0" freq="0.1" file="NUL" />
  <inductionLoop id="201" lane="1010_1" pos="0.0" freq="0.1" file="NUL" />
  <inductionLoop id="202" lane="1010_0" pos="5.0" freq="0.1" file="NUL" />
  <inductionLoop id="203" lane="1010_1" pos="5.0" freq="0.1" file="NUL" />
  <inductionLoop id="204" lane="1010_0" pos="10.0" freq="0.1" file="NUL" />
  <inductionLoop id="205" lane="1010_1" pos="10.0" freq="0.1" file="NUL" />
  <inductionLoop id="206" lane="1010_0" pos="15.0" freq="0.1" file="NUL" />
  <inductionLoop id="207" lane="1010_1" pos="15.0" freq="0.1" file="NUL" />
  <inductionLoop id="208" lane="1010_0" pos="20.0" freq="0.1" file="NUL" />
  <inductionLoop id="209" lane="1010_1" pos="20.0" freq="0.1" file="NUL" />
  <inductionLoop id="210" lane="1010_0" pos="25.0" freq="0.1" file="NUL" />
  <inductionLoop id="211" lane="1010_1" pos="25.0" freq="0.1" file="NUL" />
  <inductionLoop id="212" lane="1010_0" pos="30.0" freq="0.1" file="NUL" />
  <inductionLoop id="213" lane="1010_1" pos="30.0" freq="0.1" file="NUL" />
  <inductionLoop id="214" lane="1010_0" pos="35.0" freq="0.1" file="NUL" />
  <inductionLoop id="215" lane="1010_1" pos="35.0" freq="0.1" file="NUL" />
  <inductionLoop id="216" lane="1010_0" pos="40.0" freq="0.1" file="NUL" />
  <inductionLoop id="217" lane="1010_1" pos="40.0" freq="0.1" file="NUL" />
  <inductionLoop id="218" lane="1010_0" pos="45.0" freq="0.1" file="NUL" />
  <inductionLoop id="219" lane="1010_1" pos="45.0" freq="0.1" file="NUL" />
  <inductionLoop id="220" lane="1011_0" pos="0.0" freq="0.1" file="NUL" />
  <inductionLoop id="221" lane="1011_1" pos="0.0" freq="0.1" file="NUL" />
  <inductionLoop id="222" lane="1011_0" pos="5.0" freq="0.1" file="NUL" />
  <inductionLoop id="223" lane="1011_1" pos="5.0" freq="0.1" file="NUL" />
  <inductionLoop id="224" lane="1011_0" pos="10.0" freq="0.1" file="NUL" />
  <inductionLoop id="225" lane="1011_1" pos="10.0" freq="0.1" file="NUL" />
  <inductionLoop id="226" lane="1011_0" pos="15.0" freq="0.1" file="NUL" />
  <inductionLoop id="227" lane="1011_1" pos="15.0" freq="0.1" file="NUL" />
  <inductionLoop id="228" lane="1011_0" pos="20.0" freq="0.1" file="NUL" />
  <inductionLoop id="229" lane="1011_1" pos="20.0" freq="0.1" file="NUL" />
  <inductionLoop id="230" lane="1011_0" pos="25.0" freq="0.1" file="NUL" />
  <inductionLoop id="231" lane="1011_1" pos="25.0" freq="0.1" file="NUL" />
  <inductionLoop id="232" lane="1011_0" pos="30.0" freq="0.1" file="NUL" />
  <inductionLoop id="233" lane="1011_1" pos="30.0" freq="0.1" file="NUL" />
  <inductionLoop id="234" lane="1011_0" pos="35.0" freq="0.1" file="NUL" />
  <inductionLoop id="235" lane="1011_1" pos="35.0" freq="0.1" file="NUL" />
  <inductionLoop id="236" lane="1011_0" pos="40.0" freq="0.1" file="NUL" />
  <inductionLoop id="237" lane="1011_1" pos="40.0" freq="0.1" file="NUL" />
  <inductionLoop id="238" lane="1011_0" pos="45.0" freq="0.1" file="NUL" />
  <inductionLoop id="239" lane="1011_1" pos="45.0" freq="0.1" file="NUL" />
  <inductionLoop id="240" lane="1012_0" pos="0.0" freq="0.1" file="NUL" />
  <inductionLoop id="241" lane="1012_1" pos="0.0" freq="0.1" file="NUL" />
  <inductionLoop id="242" lane="1012_0" pos="5.0" freq="0.1" file="NUL" />
  <inductionLoop id="243" lane="1012_1" pos="5.0" freq="0.1" file="NUL" />
  <inductionLoop id="244" lane="1012_0" pos="10.0" freq="0.1" file="NUL" />
  <inductionLoop id="245" lane="1012_1" pos="10.0" freq="0.1" file="NUL" />
  <inductionLoop id="246" lane="1012_0" pos="15.0" freq="0.1" file="NUL" />
  <inductionLoop id="247" lane="1012_1" pos="15.0" freq="0.1" file="NUL" />
  <inductionLoop id="248" lane="1012_0" pos="20.0" freq="0.1" file="NUL" />
  <inductionLoop id="249" lane="1012_1" pos="20.0" freq="0.1" file="NUL" />
  <inductionLoop id="250" lane="1012_0" pos="25.0" freq="0.1" file="NUL" />
  <inductionLoop id="251" lane="1012_1" pos="25.0" freq="0.1" file="NUL" />
  <inductionLoop id="252" lane="1012_0" pos="30.0" freq="0.1" file="NUL" />
  <inductionLoop id="253" lane="1012_1" pos="30.0" freq="0.1" file="NUL" />
  <inductionLoop id="254" lane="1012_0" pos="35.0" freq="0.1" file="NUL" />
  <inductionLoop id="255" lane="1012_1" pos="35.0" freq="0.1" file="NUL" />
  <inductionLoop id="256" lane="1012_0" pos="40.0" freq="0.1" file="NUL" />
  <inductionLoop id="257" lane="1012_1" pos="40.0" freq="0.1" file="NUL" />
  <inductionLoop id="258" lane="1012_0" pos="45.0" freq="0.1" file="NUL" />
  <inductionLoop id="259" lane="1012_1" pos="45.0" freq="0.1" file="NUL" />
  <inductionLoop id="260" lane="1013_0" pos="0.0" freq="0.1" file="NUL" />
  <inductionLoop id="261" lane="1013_1" pos="0.0" freq="0.1" file="NUL" />
  <inductionLoop id="262" lane="1013_0" pos="5.0" freq="0.1" file="NUL" />
  <inductionLoop id="263" lane="1013_1" pos="5.0" freq="0.1" file="NUL" />
  <inductionLoop id="264" lane="1013_0" pos="10.0" freq="0.1" file="NUL" />
  <inductionLoop id="265" lane="1013_1" pos="10.0" freq="0.1" file="NUL" />
  <inductionLoop id="266" lane="1013_0" pos="15.0" freq="0.1" file="NUL" />
  <inductionLoop id="267" lane="1013_1" pos="15.0" freq="0.1" file="NUL" />
  <inductionLoop id="268" lane="1013_0" pos="20.0" freq="0.1" file="NUL" />
  <inductionLoop id="269" lane="1013_1" pos="20.0" freq="0.1" file="NUL" />
  <inductionLoop id="270" lane="1013_0" pos="25.0" freq="0.1" file="NUL" />
  <inductionLoop id="271" lane="1013_1" pos="25.0" freq="0.1" file="NUL" />
  <inductionLoop id="272" lane="1013_0" pos="30.0" freq="0.1" file="NUL" />
  <inductionLoop id="273" lane="1013_1" pos="30.0" freq="0.1" file="NUL" />
  <inductionLoop id="274" lane="1013_0" pos="35.0" freq="0.1" file="NUL" />
  <inductionLoop id="275" lane="1013_1" pos="35.0" freq="0.1" file="NUL" />
  <inductionLoop id="276" lane="1013_0" pos="40.0" freq="0.1" file="NUL" />
  <inductionLoop id="277" lane="1013_1" pos="40.0" freq="0.1" file="NUL" />
  <inductionLoop id="278" lane="1013_0" pos="45.0" freq="0.1" file="NUL" />
  <inductionLoop id="279" lane="1013_1" pos="45.0" freq="0.1" file="NUL" />
  <inductionLoop id="280" lane="1014_0" pos="0.0" freq="0.1" file="NUL" />
  <inductionLoop id="281" lane="1014_1" pos="0.0" freq="0.1" file="NUL" />
  <inductionLoop id="282" lane="1014_0" pos="5.0" freq="0.1" file="NUL" />
  <inductionLoop id="283" lane="1014_1" pos="5.0" freq="0.1" file="NUL" />
  <inductionLoop id="284" lane="1014_0" pos="10.0" freq="0.1" file="NUL" />
  <inductionLoop id="285" lane="1014_1" pos="10.0" freq="0.1" file="NUL" />
  <inductionLoop id="286" lane="1014_0" pos="15.0" freq="0.1" file="NUL" />
  <inductionLoop id="287" lane="1014_1" pos="15.0" freq="0.1" file="NUL" />
  <inductionLoop id="288" lane="1014_0" pos="20.0" freq="0.1" file="NUL" />
  <inductionLoop id="289" lane="1014_1" pos="20.0" freq="0.1" file="NUL" />
  <inductionLoop id="290" lane="1014_0" pos="25.0" freq="0.1" file="NUL" />
  <inductionLoop id="291" lane="1014_1" pos="25.0" freq="0.1" file="NUL" />
  <inductionLoop id="292" lane="1014_0" pos="30.0" freq="0.1" file="NUL" />
  <inductionLoop id="293" lane="1014_1" pos="30.0" freq="0.1" file="NUL" />
  <inductionLoop id="294" lane="1014_0" pos="35.0" freq="0.1" file="NUL" />
  <inductionLoop id="295" lane="1014_1" pos="35.0" freq="0.1" file="NUL" />
  <inductionLoop id="296" lane="1014_0" pos="40.0" freq="0.1" file="NUL" />
  <inductionLoop id="297" lane="1014_1" pos="40.0" freq="0.1" file="NUL" />
  <inductionLoop id="298" lane="1014_0" pos="45.0" freq="0.1" file="NUL" />
  <inductionLoop id="299" lane="1014_1" pos="45.0" freq="0.1" file="NUL" />
  <inductionLoop id="300" lane="1015_0" pos="0.0" freq="0.1" file="NUL" />
  <inductionLoop id="301" lane="1015_1" pos="0.0" freq="0.1" file="NUL" />
  <inductionLoop id="302" lane="1015_0" pos="5.0" freq="0.1" file="NUL" />
  <inductionLoop id="303" lane="1015_1" pos="5.0" freq="0.1" file="NUL" />
  <inductionLoop id="304" lane="1015_0" pos="10.0" freq="0.1" file="NUL" />
  <inductionLoop id="305" lane="1015_1" pos="10.0" freq="0.1" file="NUL" />
  <inductionLoop id="306" lane="1015_0" pos="15.0" freq="0.1" file="NUL" />
  <inductionLoop id="307" lane="1015_1" pos="15.0" freq="0.1" file="NUL" />
  <inductionLoop id="308" lane="1015_0" pos="20.0" freq="0.1" file="NUL" />
  <inductionLoop id="309" lane="1015_1" pos="20.0" freq="0.1" file="NUL" />
  <inductionLoop id="310" lane="1015_0" pos="25.0" freq="0.1" file="NUL" />
  <inductionLoop id="311" lane="1015_1" pos="25.0" freq="0.1" file="NUL" />
  <inductionLoop id="312" lane="1015_0" pos="30.0" freq="0.1" file="NUL" />
  <inductionLoop id="313" lane="1015_1" pos="30.0" freq="0.1" file="NUL" />
  <inductionLoop id="314" lane="1015_0" pos="35.0" freq="0.1" file="NUL" />
  <inductionLoop id="315" lane="1015_1" pos="35.0" freq="0.1" file="NUL" />
  <inductionLoop id="316" lane="1015_0" pos="40.0" freq="0.1" file="NUL" />
  <inductionLoop id="317" lane="1015_1" pos="40.0" freq="0.1" file="NUL" />
  <inductionLoop id="318" lane="1015_0" pos="45.0" freq="0.1" file="NUL" />
  <inductionLoop id="319" lane="1015_1" pos="45.0" freq="0.1" file="NUL" />
  <inductionLoop id="320" lane="1016_0" pos="0.0" freq="0.1" file="NUL" />
  <inductionLoop id="321" lane="1016_1" pos="0.0" freq="0.1" file="NUL" />
  <inductionLoop id="322" lane="1016_0" pos="5.0" freq="0.1" file="NUL" />
  <inductionLoop id="323" lane="1016_1" pos="5.0" freq="0.1" file="NUL" />
  <inductionLoop id="324" lane="1016_0" pos="10.0" freq="0.1" file="NUL" />
  <inductionLoop id="325" lane="1016_1" pos="10.0" freq="0.1" file="NUL" />
  <inductionLoop id="326" lane="1016_0" pos="15.0" freq="0.1" file="NUL" />
  <inductionLoop id="327" lane="1016_1" pos="15.0" freq="0.1" file="NUL" />
  <inductionLoop id="328" lane="1016_0" pos="20.0" freq="0.1" file="NUL" />
  <inductionLoop id="329" lane="1016_1" pos="20.0" freq="0.1" file="NUL" />
  <inductionLoop id="330" lane="1016_0" pos="25.0" freq="0.1" file="NUL" />
  <inductionLoop id="331" lane="1016_1" pos="25.0" freq="0.1" file="NUL" />
  <inductionLoop id="332" lane="1016_0" pos="30.0" freq="0.1" file="NUL" />
  <inductionLoop id="333" lane="1016_1" pos="30.0" freq="0.1" file="NUL" />
  <inductionLoop id="334" lane="1016_0" pos="35.0" freq="0.1" file="NUL" />
  <inductionLoop id="335" lane="1016_1" pos="35.0" freq="0.1" file="NUL" />
  <inductionLoop id="336" lane="1016_0" pos="40.0" freq="0.1" file="NUL" />
  <inductionLoop id="337" lane="1016_1" pos="40.0" freq="0.1" file="NUL" />
  <inductionLoop id="338" lane="1016_0" pos="45.0" freq="0.1" file="NUL" />
  <inductionLoop id="339" lane="1016_1" pos="45.0" freq="0.1" file="NUL" />
  <inductionLoop id="340" lane="1017_0" pos="0.0" freq="0.1" file="NUL" />
  <inductionLoop id="341" lane="1017_1" pos="0.0" freq="0.1" file="NUL" />
  <inductionLoop id="342" lane="1017_0" pos="5.0" freq="0.1" file="NUL" />
  <inductionLoop id="343" lane="1017_1" pos="5.0" freq="0.1" file="NUL" />
  <inductionLoop id="344" lane="1017_0" pos="10.0" freq="0.1" file="NUL" />
  <inductionLoop id="345" lane="1017_1" pos="10.0" freq="0.1" file="NUL" />
  <inductionLoop id="346" lane="1017_0" pos="15.0" freq="0.1" file="NUL" />
  <inductionLoop id="347" lane="1017_1" pos="15.0" freq="0.1" file="NUL" />
  <inductionLoop id="348" lane="1017_0" pos="20.0" freq="0.1" file="NUL" />
  <inductionLoop id="349" lane="1017_1" pos="20.0" freq="0.1" file="NUL" />
  <inductionLoop id="350" lane="1017_0" pos="25.0" freq="0.1" file="NUL" />
  <inductionLoop id="351" lane="1017_1" pos="25.0" freq="0.1" file="NUL" />
  <inductionLoop id="352" lane="1017_0" pos="30.0" freq="0.1" file="NUL" />
  <inductionLoop id="353" lane="1017_1" pos="30.0" freq="0.1" file="NUL" />
  <inductionLoop id="354" lane="1017_0" pos="35.0" freq="0.1" file="NUL" />
  <inductionLoop id="355" lane="1017_1" pos="35.0" freq="0.1" file="NUL" />
  <inductionLoop id="356" lane="1017_0" pos="40.0" freq="0.1" file="NUL" />
  <inductionLoop id="357" lane="1017_1" pos="40.0" freq="0.1" file="NUL" />
  <inductionLoop id="358" lane="1017_0" pos="45.0" freq="0.1" file="NUL" />
  <inductionLoop id="359" lane="1017_1" pos="45.0" freq="0.1" file="NUL" />
  <inductionLoop id="360" lane="1018_0" pos="0.0" freq="0.1" file="NUL" />
  <inductionLoop id="361" lane="1018_1" pos="0.0" freq="0.1" file="NUL" />
  <inductionLoop id="362" lane="1018_0" pos="5.0" freq="0.1" file="NUL" />
  <inductionLoop id="363" lane="1018_1" pos="5.0" freq="0.1" file="NUL" />
  <inductionLoop id="364" lane="1018_0" pos="10.0" freq="0.1" file="NUL" />
  <inductionLoop id="365" lane="1018_1" pos="10.0" freq="0.1" file="NUL" />
  <inductionLoop id="366" lane="1018_0" pos="15.0" freq="0.1" file="NUL" />
  <inductionLoop id="367" lane="1018_1" pos="15.0" freq="0.1" file="NUL" />
  <inductionLoop id="368" lane="1018_0" pos="20.0" freq="0.1" file="NUL" />
  <inductionLoop id="369" lane="1018_1" pos="20.0" freq="0.1" file="NUL" />
  <inductionLoop id="370" lane="1018_0" pos="25.0" freq="0.1" file="NUL" />
  <inductionLoop id="371" lane="1018_1" pos="25.0" freq="0.1" file="NUL" />
  <inductionLoop id="372" lane="1018_0" pos="30.0" freq="0.1" file="NUL" />
  <inductionLoop id="373" lane="1018_1" pos="30.0" freq="0.1" file="NUL" />
  <inductionLoop id="374" lane="1018_0" pos="35.0" freq="0.1" file="NUL" />
  <inductionLoop id="375" lane="1018_1" pos="35.0" freq="0.1" file="NUL" />
  <inductionLoop id="376" lane="1018_0" pos="40.0" freq="0.1" file="NUL" />
  <inductionLoop id="377" lane="1018_1" pos="40.0" freq="0.1" file="NUL" />
  <inductionLoop id="378" lane="1018_0" pos="45.0" freq="0.1" file="NUL" />
  <inductionLoop id="379" lane="1018_1" pos="45.0" freq="0.1" file="NUL" />
  <inductionLoop id="380" lane="1019_0" pos="0.0" freq="0.1" file="NUL" />
  <inductionLoop id="381" lane="1019_1" pos="0.0" freq="0.1" file="NUL" />
  <inductionLoop id="382" lane="1019_0" pos="5.0" freq="0.1" file="NUL" />
  <inductionLoop id="383" lane="1019_1" pos="5.0" freq="0.1" file="NUL" />
  <inductionLoop id="384" lane="1019_0" pos="10.0" freq="0.1" file="NUL" />
  <inductionLoop id="385" lane="1019_1" pos="10.0" freq="0.1" file="NUL" />
  <inductionLoop id="386" lane="1019_0" pos="15.0" freq="0.1" file="NUL" />
  <inductionLoop id="387" lane="1019_1" pos="15.0" freq="0.1" file="NUL" />
  <inductionLoop id="388" lane="1019_0" pos="20.0" freq="0.1" file="NUL" />
  <inductionLoop id="389" lane="1019_1" pos="20.0" freq="0.1" file="NUL" />
  <inductionLoop id="390" lane="1019_0" pos="25.0" freq="0.1" file="NUL" />
  <inductionLoop id="391" lane="1019_1" pos="25.0" freq="0.1" file="NUL" />
  <inductionLoop id="392" lane="1019_0" pos="30.0" freq="0.1" file="NUL" />
  <inductionLoop id="393" lane="1019_1" pos="30.0" freq="0.1" file="NUL" />
  <inductionLoop id="394" lane="1019_0" pos="35.0" freq="0.1" file="NUL" />
  <inductionLoop id="395" lane="1019_1" pos="35.0" freq="0.1" file="NUL" />