<?xml version="1.0" encoding="UTF-8"?>

<!-- generated on 03/11/19 15:27:36 by Eclipse SUMO netconvert Version 1.1.0
<configuration xmlns:xsi="http://www.w3.org/2001/XMLSchema-instance" xsi:noNamespaceSchemaLocation="http://sumo.dlr.de/xsd/netconvertConfiguration.xsd">

    <input>
        <node-files value="Linear_Nodes2000_50.0.nod.xml"/>
        <edge-files value="Linear_Edges_NumNodes2000_NumLanes2maxSpeedOnLane.edg.xml"/>
    </input>

    <output>
        <output-file value="Linear_2000.net.xml"/>
    </output>

</configuration>
-->

<net version="1.1" junctionCornerDetail="5" limitTurnSpeed="5.50" xmlns:xsi="http://www.w3.org/2001/XMLSchema-instance" xsi:noNamespaceSchemaLocation="http://sumo.dlr.de/xsd/net_file.xsd">

    <location netOffset="0.00,0.00" convBoundary="0.00,0.00,100000.00,0.00" origBoundary="0.00,0.00,100000.00,6.60" projParameter="!"/>

    <edge id=":1_0" function="internal">
        <lane id=":1_0_0" index="0" speed="55.00" length="0.10" shape="50.00,3.30 50.00,3.30"/>
        <lane id=":1_0_1" index="1" speed="55.00" length="0.10" shape="50.00,6.60 50.00,6.60"/>
    </edge>
    <edge id=":10_0" function="internal">
        <lane id=":10_0_0" index="0" speed="55.00" length="0.10" shape="500.00,3.30 500.00,3.30"/>
        <lane id=":10_0_1" index="1" speed="55.00" length="0.10" shape="500.00,6.60 500.00,6.60"/>
    </edge>
    <edge id=":100_0" function="internal">
        <lane id=":100_0_0" index="0" speed="55.00" length="0.10" shape="5000.00,3.30 5000.00,3.30"/>
        <lane id=":100_0_1" index="1" speed="55.00" length="0.10" shape="5000.00,6.60 5000.00,6.60"/>
    </edge>
    <edge id=":1000_0" function="internal">
        <lane id=":1000_0_0" index="0" speed="55.00" length="0.10" shape="50000.00,3.30 50000.00,3.30"/>
        <lane id=":1000_0_1" index="1" speed="55.00" length="0.10" shape="50000.00,6.60 50000.00,6.60"/>
    </edge>
    <edge id=":1001_0" function="internal">
        <lane id=":1001_0_0" index="0" speed="55.00" length="0.10" shape="50050.00,3.30 50050.00,3.30"/>
        <lane id=":1001_0_1" index="1" speed="55.00" length="0.10" shape="50050.00,6.60 50050.00,6.60"/>
    </edge>
    <edge id=":1002_0" function="internal">
        <lane id=":1002_0_0" index="0" speed="55.00" length="0.10" shape="50100.00,3.30 50100.00,3.30"/>
        <lane id=":1002_0_1" index="1" speed="55.00" length="0.10" shape="50100.00,6.60 50100.00,6.60"/>
    </edge>
    <edge id=":1003_0" function="internal">
        <lane id=":1003_0_0" index="0" speed="55.00" length="0.10" shape="50150.00,3.30 50150.00,3.30"/>
        <lane id=":1003_0_1" index="1" speed="55.00" length="0.10" shape="50150.00,6.60 50150.00,6.60"/>
    </edge>
    <edge id=":1004_0" function="internal">
        <lane id=":1004_0_0" index="0" speed="55.00" length="0.10" shape="50200.00,3.30 50200.00,3.30"/>
        <lane id=":1004_0_1" index="1" speed="55.00" length="0.10" shape="50200.00,6.60 50200.00,6.60"/>
    </edge>
    <edge id=":1005_0" function="internal">
        <lane id=":1005_0_0" index="0" speed="55.00" length="0.10" shape="50250.00,3.30 50250.00,3.30"/>
        <lane id=":1005_0_1" index="1" speed="55.00" length="0.10" shape="50250.00,6.60 50250.00,6.60"/>
    </edge>
    <edge id=":1006_0" function="internal">
        <lane id=":1006_0_0" index="0" speed="55.00" length="0.10" shape="50300.00,3.30 50300.00,3.30"/>
        <lane id=":1006_0_1" index="1" speed="55.00" length="0.10" shape="50300.00,6.60 50300.00,6.60"/>
    </edge>
    <edge id=":1007_0" function="internal">
        <lane id=":1007_0_0" index="0" speed="55.00" length="0.10" shape="50350.00,3.30 50350.00,3.30"/>
        <lane id=":1007_0_1" index="1" speed="55.00" length="0.10" shape="50350.00,6.60 50350.00,6.60"/>
    </edge>
    <edge id=":1008_0" function="internal">
        <lane id=":1008_0_0" index="0" speed="55.00" length="0.10" shape="50400.00,3.30 50400.00,3.30"/>
        <lane id=":1008_0_1" index="1" speed="55.00" length="0.10" shape="50400.00,6.60 50400.00,6.60"/>
    </edge>
    <edge id=":1009_0" function="internal">
        <lane id=":1009_0_0" index="0" speed="55.00" length="0.10" shape="50450.00,3.30 50450.00,3.30"/>
        <lane id=":1009_0_1" index="1" speed="55.00" length="0.10" shape="50450.00,6.60 50450.00,6.60"/>
    </edge>
    <edge id=":101_0" function="internal">
        <lane id=":101_0_0" index="0" speed="55.00" length="0.10" shape="5050.00,3.30 5050.00,3.30"/>
        <lane id=":101_0_1" index="1" speed="55.00" length="0.10" shape="5050.00,6.60 5050.00,6.60"/>
    </edge>
    <edge id=":1010_0" function="internal">
        <lane id=":1010_0_0" index="0" speed="55.00" length="0.10" shape="50500.00,3.30 50500.00,3.30"/>
        <lane id=":1010_0_1" index="1" speed="55.00" length="0.10" shape="50500.00,6.60 50500.00,6.60"/>
    </edge>
    <edge id=":1011_0" function="internal">
        <lane id=":1011_0_0" index="0" speed="55.00" length="0.10" shape="50550.00,3.30 50550.00,3.30"/>
        <lane id=":1011_0_1" index="1" speed="55.00" length="0.10" shape="50550.00,6.60 50550.00,6.60"/>
    </edge>
    <edge id=":1012_0" function="internal">
        <lane id=":1012_0_0" index="0" speed="55.00" length="0.10" shape="50600.00,3.30 50600.00,3.30"/>
        <lane id=":1012_0_1" index="1" speed="55.00" length="0.10" shape="50600.00,6.60 50600.00,6.60"/>
    </edge>
    <edge id=":1013_0" function="internal">
        <lane id=":1013_0_0" index="0" speed="55.00" length="0.10" shape="50650.00,3.30 50650.00,3.30"/>
        <lane id=":1013_0_1" index="1" speed="55.00" length="0.10" shape="50650.00,6.60 50650.00,6.60"/>
    </edge>
    <edge id=":1014_0" function="internal">
        <lane id=":1014_0_0" index="0" speed="55.00" length="0.10" shape="50700.00,3.30 50700.00,3.30"/>
        <lane id=":1014_0_1" index="1" speed="55.00" length="0.10" shape="50700.00,6.60 50700.00,6.60"/>
    </edge>
    <edge id=":1015_0" function="internal">
        <lane id=":1015_0_0" index="0" speed="55.00" length="0.10" shape="50750.00,3.30 50750.00,3.30"/>
        <lane id=":1015_0_1" index="1" speed="55.00" length="0.10" shape="50750.00,6.60 50750.00,6.60"/>
    </edge>
    <edge id=":1016_0" function="internal">
        <lane id=":1016_0_0" index="0" speed="55.00" length="0.10" shape="50800.00,3.30 50800.00,3.30"/>
        <lane id=":1016_0_1" index="1" speed="55.00" length="0.10" shape="50800.00,6.60 50800.00,6.60"/>
    </edge>
    <edge id=":1017_0" function="internal">
        <lane id=":1017_0_0" index="0" speed="55.00" length="0.10" shape="50850.00,3.30 50850.00,3.30"/>
        <lane id=":1017_0_1" index="1" speed="55.00" length="0.10" shape="50850.00,6.60 50850.00,6.60"/>
    </edge>
    <edge id=":1018_0" function="internal">
        <lane id=":1018_0_0" index="0" speed="55.00" length="0.10" shape="50900.00,3.30 50900.00,3.30"/>
        <lane id=":1018_0_1" index="1" speed="55.00" length="0.10" shape="50900.00,6.60 50900.00,6.60"/>
    </edge>
    <edge id=":1019_0" function="internal">
        <lane id=":1019_0_0" index="0" speed="55.00" length="0.10" shape="50950.00,3.30 50950.00,3.30"/>
        <lane id=":1019_0_1" index="1" speed="55.00" length="0.10" shape="50950.00,6.60 50950.00,6.60"/>
    </edge>
    <edge id=":102_0" function="internal">
        <lane id=":102_0_0" index="0" speed="55.00" length="0.10" shape="5100.00,3.30 5100.00,3.30"/>
        <lane id=":102_0_1" index="1" speed="55.00" length="0.10" shape="5100.00,6.60 5100.00,6.60"/>
    </edge>
    <edge id=":1020_0" function="internal">
        <lane id=":1020_0_0" index="0" speed="55.00" length="0.10" shape="51000.00,3.30 51000.00,3.30"/>
        <lane id=":1020_0_1" index="1" speed="55.00" length="0.10" shape="51000.00,6.60 51000.00,6.60"/>
    </edge>
    <edge id=":1021_0" function="internal">
        <lane id=":1021_0_0" index="0" speed="55.00" length="0.10" shape="51050.00,3.30 51050.00,3.30"/>
        <lane id=":1021_0_1" index="1" speed="55.00" length="0.10" shape="51050.00,6.60 51050.00,6.60"/>
    </edge>
    <edge id=":1022_0" function="internal">
        <lane id=":1022_0_0" index="0" speed="55.00" length="0.10" shape="51100.00,3.30 51100.00,3.30"/>
        <lane id=":1022_0_1" index="1" speed="55.00" length="0.10" shape="51100.00,6.60 51100.00,6.60"/>
    </edge>
    <edge id=":1023_0" function="internal">
        <lane id=":1023_0_0" index="0" speed="55.00" length="0.10" shape="51150.00,3.30 51150.00,3.30"/>
        <lane id=":1023_0_1" index="1" speed="55.00" length="0.10" shape="51150.00,6.60 51150.00,6.60"/>
    </edge>
    <edge id=":1024_0" function="internal">
        <lane id=":1024_0_0" index="0" speed="55.00" length="0.10" shape="51200.00,3.30 51200.00,3.30"/>
        <lane id=":1024_0_1" index="1" speed="55.00" length="0.10" shape="51200.00,6.60 51200.00,6.60"/>
    </edge>
    <edge id=":1025_0" function="internal">
        <lane id=":1025_0_0" index="0" speed="55.00" length="0.10" shape="51250.00,3.30 51250.00,3.30"/>
        <lane id=":1025_0_1" index="1" speed="55.00" length="0.10" shape="51250.00,6.60 51250.00,6.60"/>
    </edge>
    <edge id=":1026_0" function="internal">
        <lane id=":1026_0_0" index="0" speed="55.00" length="0.10" shape="51300.00,3.30 51300.00,3.30"/>
        <lane id=":1026_0_1" index="1" speed="55.00" length="0.10" shape="51300.00,6.60 51300.00,6.60"/>
    </edge>
    <edge id=":1027_0" function="internal">
        <lane id=":1027_0_0" index="0" speed="55.00" length="0.10" shape="51350.00,3.30 51350.00,3.30"/>
        <lane id=":1027_0_1" index="1" speed="55.00" length="0.10" shape="51350.00,6.60 51350.00,6.60"/>
    </edge>
    <edge id=":1028_0" function="internal">
        <lane id=":1028_0_0" index="0" speed="55.00" length="0.10" shape="51400.00,3.30 51400.00,3.30"/>
        <lane id=":1028_0_1" index="1" speed="55.00" length="0.10" shape="51400.00,6.60 51400.00,6.60"/>
    </edge>
    <edge id=":1029_0" function="internal">
        <lane id=":1029_0_0" index="0" speed="55.00" length="0.10" shape="51450.00,3.30 51450.00,3.30"/>
        <lane id=":1029_0_1" index="1" speed="55.00" length="0.10" shape="51450.00,6.60 51450.00,6.60"/>
    </edge>
    <edge id=":103_0" function="internal">
        <lane id=":103_0_0" index="0" speed="55.00" length="0.10" shape="5150.00,3.30 5150.00,3.30"/>
        <lane id=":103_0_1" index="1" speed="55.00" length="0.10" shape="5150.00,6.60 5150.00,6.60"/>
    </edge>
    <edge id=":1030_0" function="internal">
        <lane id=":1030_0_0" index="0" speed="55.00" length="0.10" shape="51500.00,3.30 51500.00,3.30"/>
        <lane id=":1030_0_1" index="1" speed="55.00" length="0.10" shape="51500.00,6.60 51500.00,6.60"/>
    </edge>
    <edge id=":1031_0" function="internal">
        <lane id=":1031_0_0" index="0" speed="55.00" length="0.10" shape="51550.00,3.30 51550.00,3.30"/>
        <lane id=":1031_0_1" index="1" speed="55.00" length="0.10" shape="51550.00,6.60 51550.00,6.60"/>
    </edge>
    <edge id=":1032_0" function="internal">
        <lane id=":1032_0_0" index="0" speed="55.00" length="0.10" shape="51600.00,3.30 51600.00,3.30"/>
        <lane id=":1032_0_1" index="1" speed="55.00" length="0.10" shape="51600.00,6.60 51600.00,6.60"/>
    </edge>
    <edge id=":1033_0" function="internal">
        <lane id=":1033_0_0" index="0" speed="55.00" length="0.10" shape="51650.00,3.30 51650.00,3.30"/>
        <lane id=":1033_0_1" index="1" speed="55.00" length="0.10" shape="51650.00,6.60 51650.00,6.60"/>
    </edge>
    <edge id=":1034_0" function="internal">
        <lane id=":1034_0_0" index="0" speed="55.00" length="0.10" shape="51700.00,3.30 51700.00,3.30"/>
        <lane id=":1034_0_1" index="1" speed="55.00" length="0.10" shape="51700.00,6.60 51700.00,6.60"/>
    </edge>
    <edge id=":1035_0" function="internal">
        <lane id=":1035_0_0" index="0" speed="55.00" length="0.10" shape="51750.00,3.30 51750.00,3.30"/>
        <lane id=":1035_0_1" index="1" speed="55.00" length="0.10" shape="51750.00,6.60 51750.00,6.60"/>
    </edge>
    <edge id=":1036_0" function="internal">
        <lane id=":1036_0_0" index="0" speed="55.00" length="0.10" shape="51800.00,3.30 51800.00,3.30"/>
        <lane id=":1036_0_1" index="1" speed="55.00" length="0.10" shape="51800.00,6.60 51800.00,6.60"/>
    </edge>
    <edge id=":1037_0" function="internal">
        <lane id=":1037_0_0" index="0" speed="55.00" length="0.10" shape="51850.00,3.30 51850.00,3.30"/>
        <lane id=":1037_0_1" index="1" speed="55.00" length="0.10" shape="51850.00,6.60 51850.00,6.60"/>
    </edge>
    <edge id=":1038_0" function="internal">
        <lane id=":1038_0_0" index="0" speed="55.00" length="0.10" shape="51900.00,3.30 51900.00,3.30"/>
        <lane id=":1038_0_1" index="1" speed="55.00" length="0.10" shape="51900.00,6.60 51900.00,6.60"/>
    </edge>
    <edge id=":1039_0" function="internal">
        <lane id=":1039_0_0" index="0" speed="55.00" length="0.10" shape="51950.00,3.30 51950.00,3.30"/>
        <lane id=":1039_0_1" index="1" speed="55.00" length="0.10" shape="51950.00,6.60 51950.00,6.60"/>
    </edge>
    <edge id=":104_0" function="internal">
        <lane id=":104_0_0" index="0" speed="55.00" length="0.10" shape="5200.00,3.30 5200.00,3.30"/>
        <lane id=":104_0_1" index="1" speed="55.00" length="0.10" shape="5200.00,6.60 5200.00,6.60"/>
    </edge>
    <edge id=":1040_0" function="internal">
        <lane id=":1040_0_0" index="0" speed="55.00" length="0.10" shape="52000.00,3.30 52000.00,3.30"/>
        <lane id=":1040_0_1" index="1" speed="55.00" length="0.10" shape="52000.00,6.60 52000.00,6.60"/>
    </edge>
    <edge id=":1041_0" function="internal">
        <lane id=":1041_0_0" index="0" speed="55.00" length="0.10" shape="52050.00,3.30 52050.00,3.30"/>
        <lane id=":1041_0_1" index="1" speed="55.00" length="0.10" shape="52050.00,6.60 52050.00,6.60"/>
    </edge>
    <edge id=":1042_0" function="internal">
        <lane id=":1042_0_0" index="0" speed="55.00" length="0.10" shape="52100.00,3.30 52100.00,3.30"/>
        <lane id=":1042_0_1" index="1" speed="55.00" length="0.10" shape="52100.00,6.60 52100.00,6.60"/>
    </edge>
    <edge id=":1043_0" function="internal">
        <lane id=":1043_0_0" index="0" speed="55.00" length="0.10" shape="52150.00,3.30 52150.00,3.30"/>
        <lane id=":1043_0_1" index="1" speed="55.00" length="0.10" shape="52150.00,6.60 52150.00,6.60"/>
    </edge>
    <edge id=":1044_0" function="internal">
        <lane id=":1044_0_0" index="0" speed="55.00" length="0.10" shape="52200.00,3.30 52200.00,3.30"/>
        <lane id=":1044_0_1" index="1" speed="55.00" length="0.10" shape="52200.00,6.60 52200.00,6.60"/>
    </edge>
    <edge id=":1045_0" function="internal">
        <lane id=":1045_0_0" index="0" speed="55.00" length="0.10" shape="52250.00,3.30 52250.00,3.30"/>
        <lane id=":1045_0_1" index="1" speed="55.00" length="0.10" shape="52250.00,6.60 52250.00,6.60"/>
    </edge>
    <edge id=":1046_0" function="internal">
        <lane id=":1046_0_0" index="0" speed="55.00" length="0.10" shape="52300.00,3.30 52300.00,3.30"/>
        <lane id=":1046_0_1" index="1" speed="55.00" length="0.10" shape="52300.00,6.60 52300.00,6.60"/>
    </edge>
    <edge id=":1047_0" function="internal">
        <lane id=":1047_0_0" index="0" speed="55.00" length="0.10" shape="52350.00,3.30 52350.00,3.30"/>
        <lane id=":1047_0_1" index="1" speed="55.00" length="0.10" shape="52350.00,6.60 52350.00,6.60"/>
    </edge>
    <edge id=":1048_0" function="internal">
        <lane id=":1048_0_0" index="0" speed="55.00" length="0.10" shape="52400.00,3.30 52400.00,3.30"/>
        <lane id=":1048_0_1" index="1" speed="55.00" length="0.10" shape="52400.00,6.60 52400.00,6.60"/>
    </edge>
    <edge id=":1049_0" function="internal">
        <lane id=":1049_0_0" index="0" speed="55.00" length="0.10" shape="52450.00,3.30 52450.00,3.30"/>
        <lane id=":1049_0_1" index="1" speed="55.00" length="0.10" shape="52450.00,6.60 52450.00,6.60"/>
    </edge>
    <edge id=":105_0" function="internal">
        <lane id=":105_0_0" index="0" speed="55.00" length="0.10" shape="5250.00,3.30 5250.00,3.30"/>
        <lane id=":105_0_1" index="1" speed="55.00" length="0.10" shape="5250.00,6.60 5250.00,6.60"/>
    </edge>
    <edge id=":1050_0" function="internal">
        <lane id=":1050_0_0" index="0" speed="55.00" length="0.10" shape="52500.00,3.30 52500.00,3.30"/>
        <lane id=":1050_0_1" index="1" speed="55.00" length="0.10" shape="52500.00,6.60 52500.00,6.60"/>
    </edge>
    <edge id=":1051_0" function="internal">
        <lane id=":1051_0_0" index="0" speed="55.00" length="0.10" shape="52550.00,3.30 52550.00,3.30"/>
        <lane id=":1051_0_1" index="1" speed="55.00" length="0.10" shape="52550.00,6.60 52550.00,6.60"/>
    </edge>
    <edge id=":1052_0" function="internal">
        <lane id=":1052_0_0" index="0" speed="55.00" length="0.10" shape="52600.00,3.30 52600.00,3.30"/>
        <lane id=":1052_0_1" index="1" speed="55.00" length="0.10" shape="52600.00,6.60 52600.00,6.60"/>
    </edge>
    <edge id=":1053_0" function="internal">
        <lane id=":1053_0_0" index="0" speed="55.00" length="0.10" shape="52650.00,3.30 52650.00,3.30"/>
        <lane id=":1053_0_1" index="1" speed="55.00" length="0.10" shape="52650.00,6.60 52650.00,6.60"/>
    </edge>
    <edge id=":1054_0" function="internal">
        <lane id=":1054_0_0" index="0" speed="55.00" length="0.10" shape="52700.00,3.30 52700.00,3.30"/>
        <lane id=":1054_0_1" index="1" speed="55.00" length="0.10" shape="52700.00,6.60 52700.00,6.60"/>
    </edge>
    <edge id=":1055_0" function="internal">
        <lane id=":1055_0_0" index="0" speed="55.00" length="0.10" shape="52750.00,3.30 52750.00,3.30"/>
        <lane id=":1055_0_1" index="1" speed="55.00" length="0.10" shape="52750.00,6.60 52750.00,6.60"/>
    </edge>
    <edge id=":1056_0" function="internal">
        <lane id=":1056_0_0" index="0" speed="55.00" length="0.10" shape="52800.00,3.30 52800.00,3.30"/>
        <lane id=":1056_0_1" index="1" speed="55.00" length="0.10" shape="52800.00,6.60 52800.00,6.60"/>
    </edge>
    <edge id=":1057_0" function="internal">
        <lane id=":1057_0_0" index="0" speed="55.00" length="0.10" shape="52850.00,3.30 52850.00,3.30"/>
        <lane id=":1057_0_1" index="1" speed="55.00" length="0.10" shape="52850.00,6.60 52850.00,6.60"/>
    </edge>
    <edge id=":1058_0" function="internal">
        <lane id=":1058_0_0" index="0" speed="55.00" length="0.10" shape="52900.00,3.30 52900.00,3.30"/>
        <lane id=":1058_0_1" index="1" speed="55.00" length="0.10" shape="52900.00,6.60 52900.00,6.60"/>
    </edge>
    <edge id=":1059_0" function="internal">
        <lane id=":1059_0_0" index="0" speed="55.00" length="0.10" shape="52950.00,3.30 52950.00,3.30"/>
        <lane id=":1059_0_1" index="1" speed="55.00" length="0.10" shape="52950.00,6.60 52950.00,6.60"/>
    </edge>
    <edge id=":106_0" function="internal">
        <lane id=":106_0_0" index="0" speed="55.00" length="0.10" shape="5300.00,3.30 5300.00,3.30"/>
        <lane id=":106_0_1" index="1" speed="55.00" length="0.10" shape="5300.00,6.60 5300.00,6.60"/>
    </edge>
    <edge id=":1060_0" function="internal">
        <lane id=":1060_0_0" index="0" speed="55.00" length="0.10" shape="53000.00,3.30 53000.00,3.30"/>
        <lane id=":1060_0_1" index="1" speed="55.00" length="0.10" shape="53000.00,6.60 53000.00,6.60"/>
    </edge>
    <edge id=":1061_0" function="internal">
        <lane id=":1061_0_0" index="0" speed="55.00" length="0.10" shape="53050.00,3.30 53050.00,3.30"/>
        <lane id=":1061_0_1" index="1" speed="55.00" length="0.10" shape="53050.00,6.60 53050.00,6.60"/>
    </edge>
    <edge id=":1062_0" function="internal">
        <lane id=":1062_0_0" index="0" speed="55.00" length="0.10" shape="53100.00,3.30 53100.00,3.30"/>
        <lane id=":1062_0_1" index="1" speed="55.00" length="0.10" shape="53100.00,6.60 53100.00,6.60"/>
    </edge>
    <edge id=":1063_0" function="internal">
        <lane id=":1063_0_0" index="0" speed="55.00" length="0.10" shape="53150.00,3.30 53150.00,3.30"/>
        <lane id=":1063_0_1" index="1" speed="55.00" length="0.10" shape="53150.00,6.60 53150.00,6.60"/>
    </edge>
    <edge id=":1064_0" function="internal">
        <lane id=":1064_0_0" index="0" speed="55.00" length="0.10" shape="53200.00,3.30 53200.00,3.30"/>
        <lane id=":1064_0_1" index="1" speed="55.00" length="0.10" shape="53200.00,6.60 53200.00,6.60"/>
    </edge>
    <edge id=":1065_0" function="internal">
        <lane id=":1065_0_0" index="0" speed="55.00" length="0.10" shape="53250.00,3.30 53250.00,3.30"/>
        <lane id=":1065_0_1" index="1" speed="55.00" length="0.10" shape="53250.00,6.60 53250.00,6.60"/>
    </edge>
    <edge id=":1066_0" function="internal">
        <lane id=":1066_0_0" index="0" speed="55.00" length="0.10" shape="53300.00,3.30 53300.00,3.30"/>
        <lane id=":1066_0_1" index="1" speed="55.00" length="0.10" shape="53300.00,6.60 53300.00,6.60"/>
    </edge>
    <edge id=":1067_0" function="internal">
        <lane id=":1067_0_0" index="0" speed="55.00" length="0.10" shape="53350.00,3.30 53350.00,3.30"/>
        <lane id=":1067_0_1" index="1" speed="55.00" length="0.10" shape="53350.00,6.60 53350.00,6.60"/>
    </edge>
    <edge id=":1068_0" function="internal">
        <lane id=":1068_0_0" index="0" speed="55.00" length="0.10" shape="53400.00,3.30 53400.00,3.30"/>
        <lane id=":1068_0_1" index="1" speed="55.00" length="0.10" shape="53400.00,6.60 53400.00,6.60"/>
    </edge>
    <edge id=":1069_0" function="internal">
        <lane id=":1069_0_0" index="0" speed="55.00" length="0.10" shape="53450.00,3.30 53450.00,3.30"/>
        <lane id=":1069_0_1" index="1" speed="55.00" length="0.10" shape="53450.00,6.60 53450.00,6.60"/>
    </edge>
    <edge id=":107_0" function="internal">
        <lane id=":107_0_0" index="0" speed="55.00" length="0.10" shape="5350.00,3.30 5350.00,3.30"/>
        <lane id=":107_0_1" index="1" speed="55.00" length="0.10" shape="5350.00,6.60 5350.00,6.60"/>
    </edge>
    <edge id=":1070_0" function="internal">
        <lane id=":1070_0_0" index="0" speed="55.00" length="0.10" shape="53500.00,3.30 53500.00,3.30"/>
        <lane id=":1070_0_1" index="1" speed="55.00" length="0.10" shape="53500.00,6.60 53500.00,6.60"/>
    </edge>
    <edge id=":1071_0" function="internal">
        <lane id=":1071_0_0" index="0" speed="55.00" length="0.10" shape="53550.00,3.30 53550.00,3.30"/>
        <lane id=":1071_0_1" index="1" speed="55.00" length="0.10" shape="53550.00,6.60 53550.00,6.60"/>
    </edge>
    <edge id=":1072_0" function="internal">
        <lane id=":1072_0_0" index="0" speed="55.00" length="0.10" shape="53600.00,3.30 53600.00,3.30"/>
        <lane id=":1072_0_1" index="1" speed="55.00" length="0.10" shape="53600.00,6.60 53600.00,6.60"/>
    </edge>
    <edge id=":1073_0" function="internal">
        <lane id=":1073_0_0" index="0" speed="55.00" length="0.10" shape="53650.00,3.30 53650.00,3.30"/>
        <lane id=":1073_0_1" index="1" speed="55.00" length="0.10" shape="53650.00,6.60 53650.00,6.60"/>
    </edge>
    <edge id=":1074_0" function="internal">
        <lane id=":1074_0_0" index="0" speed="55.00" length="0.10" shape="53700.00,3.30 53700.00,3.30"/>
        <lane id=":1074_0_1" index="1" speed="55.00" length="0.10" shape="53700.00,6.60 53700.00,6.60"/>
    </edge>
    <edge id=":1075_0" function="internal">
        <lane id=":1075_0_0" index="0" speed="55.00" length="0.10" shape="53750.00,3.30 53750.00,3.30"/>
        <lane id=":1075_0_1" index="1" speed="55.00" length="0.10" shape="53750.00,6.60 53750.00,6.60"/>
    </edge>
    <edge id=":1076_0" function="internal">
        <lane id=":1076_0_0" index="0" speed="55.00" length="0.10" shape="53800.00,3.30 53800.00,3.30"/>
        <lane id=":1076_0_1" index="1" speed="55.00" length="0.10" shape="53800.00,6.60 53800.00,6.60"/>
    </edge>
    <edge id=":1077_0" function="internal">
        <lane id=":1077_0_0" index="0" speed="55.00" length="0.10" shape="53850.00,3.30 53850.00,3.30"/>
        <lane id=":1077_0_1" index="1" speed="55.00" length="0.10" shape="53850.00,6.60 53850.00,6.60"/>
    </edge>
    <edge id=":1078_0" function="internal">
        <lane id=":1078_0_0" index="0" speed="55.00" length="0.10" shape="53900.00,3.30 53900.00,3.30"/>
        <lane id=":1078_0_1" index="1" speed="55.00" length="0.10" shape="53900.00,6.60 53900.00,6.60"/>
    </edge>
    <edge id=":1079_0" function="internal">
        <lane id=":1079_0_0" index="0" speed="55.00" length="0.10" shape="53950.00,3.30 53950.00,3.30"/>
        <lane id=":1079_0_1" index="1" speed="55.00" length="0.10" shape="53950.00,6.60 53950.00,6.60"/>
    </edge>
    <edge id=":108_0" function="internal">
        <lane id=":108_0_0" index="0" speed="55.00" length="0.10" shape="5400.00,3.30 5400.00,3.30"/>
        <lane id=":108_0_1" index="1" speed="55.00" length="0.10" shape="5400.00,6.60 5400.00,6.60"/>
    </edge>
    <edge id=":1080_0" function="internal">
        <lane id=":1080_0_0" index="0" speed="55.00" length="0.10" shape="54000.00,3.30 54000.00,3.30"/>
        <lane id=":1080_0_1" index="1" speed="55.00" length="0.10" shape="54000.00,6.60 54000.00,6.60"/>
    </edge>
    <edge id=":1081_0" function="internal">
        <lane id=":1081_0_0" index="0" speed="55.00" length="0.10" shape="54050.00,3.30 54050.00,3.30"/>
        <lane id=":1081_0_1" index="1" speed="55.00" length="0.10" shape="54050.00,6.60 54050.00,6.60"/>
    </edge>
    <edge id=":1082_0" function="internal">
        <lane id=":1082_0_0" index="0" speed="55.00" length="0.10" shape="54100.00,3.30 54100.00,3.30"/>
        <lane id=":1082_0_1" index="1" speed="55.00" length="0.10" shape="54100.00,6.60 54100.00,6.60"/>
    </edge>
    <edge id=":1083_0" function="internal">
        <lane id=":1083_0_0" index="0" speed="55.00" length="0.10" shape="54150.00,3.30 54150.00,3.30"/>
        <lane id=":1083_0_1" index="1" speed="55.00" length="0.10" shape="54150.00,6.60 54150.00,6.60"/>
    </edge>
    <edge id=":1084_0" function="internal">
        <lane id=":1084_0_0" index="0" speed="55.00" length="0.10" shape="54200.00,3.30 54200.00,3.30"/>
        <lane id=":1084_0_1" index="1" speed="55.00" length="0.10" shape="54200.00,6.60 54200.00,6.60"/>
    </edge>
    <edge id=":1085_0" function="internal">
        <lane id=":1085_0_0" index="0" speed="55.00" length="0.10" shape="54250.00,3.30 54250.00,3.30"/>
        <lane id=":1085_0_1" index="1" speed="55.00" length="0.10" shape="54250.00,6.60 54250.00,6.60"/>
    </edge>
    <edge id=":1086_0" function="internal">
        <lane id=":1086_0_0" index="0" speed="55.00" length="0.10" shape="54300.00,3.30 54300.00,3.30"/>
        <lane id=":1086_0_1" index="1" speed="55.00" length="0.10" shape="54300.00,6.60 54300.00,6.60"/>
    </edge>
    <edge id=":1087_0" function="internal">
        <lane id=":1087_0_0" index="0" speed="55.00" length="0.10" shape="54350.00,3.30 54350.00,3.30"/>
        <lane id=":1087_0_1" index="1" speed="55.00" length="0.10" shape="54350.00,6.60 54350.00,6.60"/>
    </edge>
    <edge id=":1088_0" function="internal">
        <lane id=":1088_0_0" index="0" speed="55.00" length="0.10" shape="54400.00,3.30 54400.00,3.30"/>
        <lane id=":1088_0_1" index="1" speed="55.00" length="0.10" shape="54400.00,6.60 54400.00,6.60"/>
    </edge>
    <edge id=":1089_0" function="internal">
        <lane id=":1089_0_0" index="0" speed="55.00" length="0.10" shape="54450.00,3.30 54450.00,3.30"/>
        <lane id=":1089_0_1" index="1" speed="55.00" length="0.10" shape="54450.00,6.60 54450.00,6.60"/>
    </edge>
    <edge id=":109_0" function="internal">
        <lane id=":109_0_0" index="0" speed="55.00" length="0.10" shape="5450.00,3.30 5450.00,3.30"/>
        <lane id=":109_0_1" index="1" speed="55.00" length="0.10" shape="5450.00,6.60 5450.00,6.60"/>
    </edge>
    <edge id=":1090_0" function="internal">
        <lane id=":1090_0_0" index="0" speed="55.00" length="0.10" shape="54500.00,3.30 54500.00,3.30"/>
        <lane id=":1090_0_1" index="1" speed="55.00" length="0.10" shape="54500.00,6.60 54500.00,6.60"/>
    </edge>
    <edge id=":1091_0" function="internal">
        <lane id=":1091_0_0" index="0" speed="55.00" length="0.10" shape="54550.00,3.30 54550.00,3.30"/>
        <lane id=":1091_0_1" index="1" speed="55.00" length="0.10" shape="54550.00,6.60 54550.00,6.60"/>
    </edge>
    <edge id=":1092_0" function="internal">
        <lane id=":1092_0_0" index="0" speed="55.00" length="0.10" shape="54600.00,3.30 54600.00,3.30"/>
        <lane id=":1092_0_1" index="1" speed="55.00" length="0.10" shape="54600.00,6.60 54600.00,6.60"/>
    </edge>
    <edge id=":1093_0" function="internal">
        <lane id=":1093_0_0" index="0" speed="55.00" length="0.10" shape="54650.00,3.30 54650.00,3.30"/>
        <lane id=":1093_0_1" index="1" speed="55.00" length="0.10" shape="54650.00,6.60 54650.00,6.60"/>
    </edge>
    <edge id=":1094_0" function="internal">
        <lane id=":1094_0_0" index="0" speed="55.00" length="0.10" shape="54700.00,3.30 54700.00,3.30"/>
        <lane id=":1094_0_1" index="1" speed="55.00" length="0.10" shape="54700.00,6.60 54700.00,6.60"/>
    </edge>
    <edge id=":1095_0" function="internal">
        <lane id=":1095_0_0" index="0" speed="55.00" length="0.10" shape="54750.00,3.30 54750.00,3.30"/>
        <lane id=":1095_0_1" index="1" speed="55.00" length="0.10" shape="54750.00,6.60 54750.00,6.60"/>
    </edge>
    <edge id=":1096_0" function="internal">
        <lane id=":1096_0_0" index="0" speed="55.00" length="0.10" shape="54800.00,3.30 54800.00,3.30"/>
        <lane id=":1096_0_1" index="1" speed="55.00" length="0.10" shape="54800.00,6.60 54800.00,6.60"/>
    </edge>
    <edge id=":1097_0" function="internal">
        <lane id=":1097_0_0" index="0" speed="55.00" length="0.10" shape="54850.00,3.30 54850.00,3.30"/>